NOVO24/1726539/Chaves.dss
! ==========================================================
! CHAVES — geradas de UNSEMT (Line com Switch=Y)
! ==========================================================
! 46 chave(s) omitida(s): os dois PACs fora da rede de MT deste alimentador, o que criaria ilha flutuante — ex.: 2693253147, 2611092472, 350910767
New Line.1969838323 Phases=1 Bus1=node_2288049741.2 Bus2=node_2288049742.2 Switch=Y r1=1e-4 x1=1e-4 r0=1e-4 x0=1e-4 normamps=9999
New Line.350910442 Phases=3 Bus1=100_1051613514.1.2.3 Bus2=100_1051613515.1.2.3 Switch=Y r1=1e-4 x1=1e-4 r0=1e-4 x0=1e-4 normamps=9999
New Line.1897888120 Phases=3 Bus1=node_2217456730.1.2.3 Bus2=node_2217456742.1.2.3 Switch=Y r1=1e-4 x1=1e-4 r0=1e-4 x0=1e-4 normamps=9999
New Line.1858224394 Phases=1 Bus1=node_2178866419.1 Bus2=node_2178866420.1 Switch=Y r1=1e-4 x1=1e-4 r0=1e-4 x0=1e-4 normamps=9999
New Line.1887076009 Phases=3 Bus1=node_2253732486.1.2.3 Bus2=node_2253732487.1.2.3 Switch=Y r1=1e-4 x1=1e-4 r0=1e-4 x0=1e-4 normamps=9999
New Line.349741157 Phases=1 Bus1=node_547156856.3 Bus2=node_547156857.3 Switch=Y r1=1e-4 x1=1e-4 r0=1e-4 x0=1e-4 normamps=9999
New Line.1963350074 Phases=3 Bus1=node_2281256534.1.2.3 Bus2=node_2281256535.1.2.3 Switch=Y r1=1e-4 x1=1e-4 r0=1e-4 x0=1e-4 normamps=9999
New Line.349396404 Phases=1 Bus1=node_2248927114.1 Bus2=node_2248927128.1 Switch=Y r1=1e-4 x1=1e-4 r0=1e-4 x0=1e-4 normamps=9999
New Line.346717111 Phases=3 Bus1=node_541333535.1.2.3 Bus2=node_541333536.1.2.3 Switch=Y r1=1e-4 x1=1e-4 r0=1e-4 x0=1e-4 normamps=9999
New Line.350912967 Phases=1 Bus1=100_1496484975.2 Bus2=100_1496484976.2 Switch=Y r1=1e-4 x1=1e-4 r0=1e-4 x0=1e-4 normamps=9999
New Line.1930479403 Phases=3 Bus1=node_2247754575.1.2.3 Bus2=node_2247754576.1.2.3 Switch=Y r1=1e-4 x1=1e-4 r0=1e-4 x0=1e-4 normamps=9999
New Line.346572068 Phases=3 Bus1=node_540964622.1.2.3 Bus2=node_540964623.1.2.3 Switch=Y r1=1e-4 x1=1e-4 r0=1e-4 x0=1e-4 normamps=9999
New Line.2257257127 Phases=1 Bus1=node_2559215664.2 Bus2=node_2559215665.2 Switch=Y r1=1e-4 x1=1e-4 r0=1e-4 x0=1e-4 normamps=9999
New Line.2299634712 Phases=1 Bus1=node_2480851688.1 Bus2=node_2480851861.1 Switch=Y r1=1e-4 x1=1e-4 r0=1e-4 x0=1e-4 normamps=9999
New Line.2291677786 Phases=1 Bus1=node_431681760.1 Bus2=node_2508061158.1 Switch=Y r1=1e-4 x1=1e-4 r0=1e-4 x0=1e-4 normamps=9999
New Line.2266313087 Phases=3 Bus1=node_2519449050.1.2.3 Bus2=node_2519449051.1.2.3 Switch=Y r1=1e-4 x1=1e-4 r0=1e-4 x0=1e-4 normamps=9999
New Line.2272745738 Phases=3 Bus1=100_2272745779.1.2.3 Bus2=100_2272745780.1.2.3 Switch=Y r1=1e-4 x1=1e-4 r0=1e-4 x0=1e-4 normamps=9999
New Line.349741099 Phases=1 Bus1=node_2541683348.3 Bus2=node_2541683533.3 Switch=Y r1=1e-4 x1=1e-4 r0=1e-4 x0=1e-4 normamps=9999
New Line.1076317089 Phases=3 Bus1=node_1343404067.1.2.3 Bus2=node_1343404068.1.2.3 Switch=Y r1=1e-4 x1=1e-4 r0=1e-4 x0=1e-4 normamps=9999
New Line.350171488 Phases=3 Bus1=node_1729203365.1.2.3 Bus2=node_1729203366.1.2.3 Switch=Y r1=1e-4 x1=1e-4 r0=1e-4 x0=1e-4 normamps=9999
New Line.349704295 Phases=1 Bus1=node_547096045.1 Bus2=node_547096046.1 Switch=Y r1=1e-4 x1=1e-4 r0=1e-4 x0=1e-4 normamps=9999
New Line.1010051923 Phases=1 Bus1=node_1273519073.1 Bus2=node_1273519074.1 Switch=Y r1=1e-4 x1=1e-4 r0=1e-4 x0=1e-4 normamps=9999
New Line.1437841877 Phases=1 Bus1=node_2747900853.1 Bus2=node_2747900854.1 Switch=Y r1=1e-4 x1=1e-4 r0=1e-4 x0=1e-4 normamps=9999
New Line.1310726398 Phases=1 Bus1=node_1609228281.1 Bus2=node_1609228282.1 Switch=Y r1=1e-4 x1=1e-4 r0=1e-4 x0=1e-4 normamps=9999
New Line.1451194460 Phases=1 Bus1=node_1723494823.1 Bus2=node_1723494824.1 Switch=Y r1=1e-4 x1=1e-4 r0=1e-4 x0=1e-4 normamps=9999
New Line.1436288186 Phases=3 Bus1=node_426304363.1.2.3 Bus2=node_1732600580.1.2.3 Switch=Y r1=1e-4 x1=1e-4 r0=1e-4 x0=1e-4 normamps=9999
New Line.1426892131 Phases=3 Bus1=node_1723418893.1.2.3 Bus2=node_1723418930.1.2.3 Switch=Y r1=1e-4 x1=1e-4 r0=1e-4 x0=1e-4 normamps=9999
New Line.1468519098 Phases=3 Bus1=node_1770409878.1.2.3 Bus2=node_1770409672.1.2.3 Switch=Y r1=1e-4 x1=1e-4 r0=1e-4 x0=1e-4 normamps=9999
New Line.1426552792 Phases=1 Bus1=node_1723075112.3 Bus2=node_1723075146.3 Switch=Y r1=1e-4 x1=1e-4 r0=1e-4 x0=1e-4 normamps=9999
New Line.346679859 Phases=1 Bus1=node_541241140.2 Bus2=node_541241141.2 Switch=Y r1=1e-4 x1=1e-4 r0=1e-4 x0=1e-4 normamps=9999
New Line.1513463279 Phases=1 Bus1=100_1513463310.3 Bus2=100_1513463311.3 Switch=Y r1=1e-4 x1=1e-4 r0=1e-4 x0=1e-4 normamps=9999
New Line.1040561144 Phases=3 Bus1=node_1307099124.1.2.3 Bus2=node_1307099125.1.2.3 Switch=Y r1=1e-4 x1=1e-4 r0=1e-4 x0=1e-4 normamps=9999
New Line.346867468 Phases=3 Bus1=node_3000751302.1.2.3 Bus2=node_3000751327.1.2.3 Switch=Y r1=1e-4 x1=1e-4 r0=1e-4 x0=1e-4 normamps=9999
New Line.1510324485 Phases=1 Bus1=node_1821085821.3 Bus2=node_1821085822.3 Switch=Y r1=1e-4 x1=1e-4 r0=1e-4 x0=1e-4 normamps=9999
New Line.1489915067 Phases=3 Bus1=node_431497771.1.2.3 Bus2=node_1797438853.1.2.3 Switch=Y r1=1e-4 x1=1e-4 r0=1e-4 x0=1e-4 normamps=9999
New Line.1513287711 Phases=1 Bus1=node_2217456561.3 Bus2=node_2217456562.3 Switch=Y r1=1e-4 x1=1e-4 r0=1e-4 x0=1e-4 normamps=9999
New Line.1496485389 Phases=1 Bus1=node_1804254472.2 Bus2=node_1804254473.2 Switch=Y r1=1e-4 x1=1e-4 r0=1e-4 x0=1e-4 normamps=9999
New Line.1529849150 Phases=1 Bus1=100_1529849187.1 Bus2=100_1529849185.1 Switch=Y r1=1e-4 x1=1e-4 r0=1e-4 x0=1e-4 normamps=9999
New Line.1334923789 Phases=1 Bus1=100_1334923826.1 Bus2=100_1334923825.1 Switch=Y r1=1e-4 x1=1e-4 r0=1e-4 x0=1e-4 normamps=9999
New Line.1484893482 Phases=3 Bus1=node_1793012170.1.2.3 Bus2=node_1793012171.1.2.3 Switch=Y r1=1e-4 x1=1e-4 r0=1e-4 x0=1e-4 normamps=9999
New Line.922742227 Phases=3 Bus1=node_1804443452.1.2.3 Bus2=node_1804443451.1.2.3 Switch=Y r1=1e-4 x1=1e-4 r0=1e-4 x0=1e-4 normamps=9999
New Line.346416019 Phases=3 Bus1=node_540563683.1.2.3 Bus2=node_540563682.1.2.3 Switch=Y r1=1e-4 x1=1e-4 r0=1e-4 x0=1e-4 normamps=9999
New Line.922743551 Phases=3 Bus1=node_1221338127.1.2.3 Bus2=node_1221338128.1.2.3 Switch=Y r1=1e-4 x1=1e-4 r0=1e-4 x0=1e-4 normamps=9999
New Line.922743651 Phases=3 Bus1=node_1804443350.1.2.3 Bus2=node_1804443351.1.2.3 Switch=Y r1=1e-4 x1=1e-4 r0=1e-4 x0=1e-4 normamps=9999
New Line.1035758312 Phases=3 Bus1=node_1792878172.1.2.3 Bus2=node_1792878173.1.2.3 Switch=Y r1=1e-4 x1=1e-4 r0=1e-4 x0=1e-4 normamps=9999
New Line.922743579 Phases=3 Bus1=node_1221338171.1.2.3 Bus2=node_1221338172.1.2.3 Switch=Y r1=1e-4 x1=1e-4 r0=1e-4 x0=1e-4 normamps=9999
New Line.1565008583 Phases=3 Bus1=node_1884649815.1.2.3 Bus2=node_1884649814.1.2.3 Switch=Y r1=1e-4 x1=1e-4 r0=1e-4 x0=1e-4 normamps=9999
New Line.350895127 Phases=1 Bus1=100_350895141.3 Bus2=100_350895140.3 Switch=Y r1=1e-4 x1=1e-4 r0=1e-4 x0=1e-4 normamps=9999
New Line.1555398471 Phases=1 Bus1=100_1555398489.3 Bus2=100_1555398490.3 Switch=Y r1=1e-4 x1=1e-4 r0=1e-4 x0=1e-4 normamps=9999
New Line.1372371184 Phases=1 Bus1=node_1666965684.1 Bus2=node_1666965685.1 Switch=Y r1=1e-4 x1=1e-4 r0=1e-4 x0=1e-4 normamps=9999
New Line.349682945 Phases=1 Bus1=node_1906832578.1 Bus2=node_1906832579.1 Switch=Y r1=1e-4 x1=1e-4 r0=1e-4 x0=1e-4 normamps=9999
New Line.350149156 Phases=1 Bus1=node_1856744054.2 Bus2=node_1856744055.2 Switch=Y r1=1e-4 x1=1e-4 r0=1e-4 x0=1e-4 normamps=9999
New Line.1577332206 Phases=1 Bus1=100_1577332237.3 Bus2=100_1577332238.3 Switch=Y r1=1e-4 x1=1e-4 r0=1e-4 x0=1e-4 normamps=9999
New Line.350895791 Phases=1 Bus1=100_350895804.2 Bus2=100_350895805.2 Switch=Y r1=1e-4 x1=1e-4 r0=1e-4 x0=1e-4 normamps=9999
New Line.1417863591 Phases=3 Bus1=node_1787749186.1.2.3 Bus2=node_1787750448.1.2.3 Switch=Y r1=1e-4 x1=1e-4 r0=1e-4 x0=1e-4 normamps=9999
New Line.1372371157 Phases=1 Bus1=node_1666965605.1 Bus2=node_1666965606.1 Switch=Y r1=1e-4 x1=1e-4 r0=1e-4 x0=1e-4 normamps=9999
New Line.1403678775 Phases=1 Bus1=100_1403678805.2 Bus2=100_1403678806.2 Switch=Y r1=1e-4 x1=1e-4 r0=1e-4 x0=1e-4 normamps=9999
New Line.350895639 Phases=3 Bus1=100_350895638.1.2.3 Bus2=100_350895617.1.2.3 Switch=Y r1=1e-4 x1=1e-4 r0=1e-4 x0=1e-4 normamps=9999
New Line.1600048142 Phases=3 Bus1=100_1600048154.1.2.3 Bus2=100_1600048155.1.2.3 Switch=Y r1=1e-4 x1=1e-4 r0=1e-4 x0=1e-4 normamps=9999
New Line.1417863584 Phases=3 Bus1=node_1787750438.1.2.3 Bus2=node_1787749897.1.2.3 Switch=Y r1=1e-4 x1=1e-4 r0=1e-4 x0=1e-4 normamps=9999
New Line.1604917016 Phases=1 Bus1=node_1856744790.2 Bus2=node_1856743911.2 Switch=Y r1=1e-4 x1=1e-4 r0=1e-4 x0=1e-4 normamps=9999
New Line.1555261059 Phases=1 Bus1=100_1555261077.1 Bus2=100_1555261078.1 Switch=Y r1=1e-4 x1=1e-4 r0=1e-4 x0=1e-4 normamps=9999
New Line.1622539880 Phases=1 Bus1=node_442734036.2 Bus2=node_1977757629.2 Switch=Y r1=1e-4 x1=1e-4 r0=1e-4 x0=1e-4 normamps=9999
New Line.923163301 Phases=3 Bus1=node_1882957768.1.2.3 Bus2=node_1882957769.1.2.3 Switch=Y r1=1e-4 x1=1e-4 r0=1e-4 x0=1e-4 normamps=9999
New Line.1622539792 Phases=3 Bus1=node_1977757069.1.2.3 Bus2=node_1977757292.1.2.3 Switch=Y r1=1e-4 x1=1e-4 r0=1e-4 x0=1e-4 normamps=9999
New Line.1650450851 Phases=1 Bus1=node_1970844242.3 Bus2=node_1970844243.3 Switch=Y r1=1e-4 x1=1e-4 r0=1e-4 x0=1e-4 normamps=9999
New Line.1620761928 Phases=1 Bus1=node_1941481358.1 Bus2=node_1941481359.1 Switch=Y r1=1e-4 x1=1e-4 r0=1e-4 x0=1e-4 normamps=9999
New Line.1620762105 Phases=1 Bus1=node_1941481846.1 Bus2=node_1941482056.1 Switch=Y r1=1e-4 x1=1e-4 r0=1e-4 x0=1e-4 normamps=9999
New Line.1569535943 Phases=1 Bus1=node_1887554076.1 Bus2=node_1887554311.1 Switch=Y r1=1e-4 x1=1e-4 r0=1e-4 x0=1e-4 normamps=9999
New Line.1417698629 Phases=1 Bus1=node_2108045388.1 Bus2=node_2108045364.1 Switch=Y r1=1e-4 x1=1e-4 r0=1e-4 x0=1e-4 normamps=9999
New Line.923163318 Phases=3 Bus1=node_1971912278.1.2.3 Bus2=node_1971912279.1.2.3 Switch=Y r1=1e-4 x1=1e-4 r0=1e-4 x0=1e-4 normamps=9999
New Line.350910659 Phases=1 Bus1=100_350910672.1 Bus2=100_350910673.1 Switch=Y r1=1e-4 x1=1e-4 r0=1e-4 x0=1e-4 normamps=9999
New Line.346474571 Phases=3 Bus1=node_540639173.1.2.3 Bus2=node_540639174.1.2.3 Switch=Y r1=1e-4 x1=1e-4 r0=1e-4 x0=1e-4 normamps=9999
New Line.350894979 Phases=1 Bus1=100_350894992.3 Bus2=100_350894993.3 Switch=Y r1=1e-4 x1=1e-4 r0=1e-4 x0=1e-4 normamps=9999
New Line.350913969 Phases=1 Bus1=100_350913982.3 Bus2=100_350913983.3 Switch=Y r1=1e-4 x1=1e-4 r0=1e-4 x0=1e-4 normamps=9999
New Line.1628989045 Phases=1 Bus1=100_1628989075.3 Bus2=100_1628989076.3 Switch=Y r1=1e-4 x1=1e-4 r0=1e-4 x0=1e-4 normamps=9999
New Line.1630131239 Phases=1 Bus1=100_1630131270.3 Bus2=100_1630131269.3 Switch=Y r1=1e-4 x1=1e-4 r0=1e-4 x0=1e-4 normamps=9999
New Line.346867997 Phases=3 Bus1=node_2013247184.1.2.3 Bus2=node_2013247185.1.2.3 Switch=Y r1=1e-4 x1=1e-4 r0=1e-4 x0=1e-4 normamps=9999
New Line.350110999 Phases=1 Bus1=node_2013246590.3 Bus2=node_2013247087.3 Switch=Y r1=1e-4 x1=1e-4 r0=1e-4 x0=1e-4 normamps=9999
New Line.1687637473 Phases=1 Bus1=node_2013248059.3 Bus2=node_2013248060.3 Switch=Y r1=1e-4 x1=1e-4 r0=1e-4 x0=1e-4 normamps=9999
New Line.1693386206 Phases=1 Bus1=node_2019137653.3 Bus2=node_2019137765.3 Switch=Y r1=1e-4 x1=1e-4 r0=1e-4 x0=1e-4 normamps=9999
New Line.1654615613 Phases=3 Bus1=node_441712499.1.2.3 Bus2=node_1975343079.1.2.3 Switch=Y r1=1e-4 x1=1e-4 r0=1e-4 x0=1e-4 normamps=9999
New Line.1560156203 Phases=1 Bus1=100_1560156230.3 Bus2=100_1560156231.3 Switch=Y r1=1e-4 x1=1e-4 r0=1e-4 x0=1e-4 normamps=9999
New Line.1654616016 Phases=1 Bus1=node_1975344628.2 Bus2=node_1975343795.2 Switch=Y r1=1e-4 x1=1e-4 r0=1e-4 x0=1e-4 normamps=9999
New Line.349573945 Phases=1 Bus1=node_2014706637.1 Bus2=node_2014706638.1 Switch=Y r1=1e-4 x1=1e-4 r0=1e-4 x0=1e-4 normamps=9999
New Line.346897858 Phases=3 Bus1=node_2576516045.1.2.3 Bus2=node_2576516067.1.2.3 Switch=Y r1=1e-4 x1=1e-4 r0=1e-4 x0=1e-4 normamps=9999
New Line.346502738 Phases=3 Bus1=node_540773902.1.2.3 Bus2=node_540773903.1.2.3 Switch=Y r1=1e-4 x1=1e-4 r0=1e-4 x0=1e-4 normamps=9999
New Line.346752377 Phases=1 Bus1=node_541434153.3 Bus2=node_541434154.3 Switch=Y r1=1e-4 x1=1e-4 r0=1e-4 x0=1e-4 normamps=9999
New Line.346897940 Phases=1 Bus1=node_541752666.2 Bus2=node_541752667.2 Switch=Y r1=1e-4 x1=1e-4 r0=1e-4 x0=1e-4 normamps=9999
New Line.346679680 Phases=1 Bus1=node_541240699.3 Bus2=node_541240700.3 Switch=Y r1=1e-4 x1=1e-4 r0=1e-4 x0=1e-4 normamps=9999
New Line.346639041 Phases=3 Bus1=node_541099643.1.2.3 Bus2=node_541099644.1.2.3 Switch=Y r1=1e-4 x1=1e-4 r0=1e-4 x0=1e-4 normamps=9999
New Line.346445535 Phases=1 Bus1=node_540593002.1 Bus2=node_540593003.1 Switch=Y r1=1e-4 x1=1e-4 r0=1e-4 x0=1e-4 normamps=9999
New Line.346542905 Phases=1 Bus1=node_540871149.3 Bus2=node_540871150.3 Switch=Y r1=1e-4 x1=1e-4 r0=1e-4 x0=1e-4 normamps=9999
New Line.346568894 Phases=1 Bus1=node_540871754.2 Bus2=node_540871755.2 Switch=Y r1=1e-4 x1=1e-4 r0=1e-4 x0=1e-4 normamps=9999
New Line.346897704 Phases=1 Bus1=node_541730561.1 Bus2=node_541730560.1 Switch=Y r1=1e-4 x1=1e-4 r0=1e-4 x0=1e-4 normamps=9999
New Line.346569008 Phases=1 Bus1=node_540872096.1 Bus2=node_540872097.1 Switch=Y r1=1e-4 x1=1e-4 r0=1e-4 x0=1e-4 normamps=9999
New Line.346679985 Phases=1 Bus1=node_541241458.3 Bus2=node_541241459.3 Switch=Y r1=1e-4 x1=1e-4 r0=1e-4 x0=1e-4 normamps=9999
New Line.346829076 Phases=1 Bus1=node_541596856.1 Bus2=node_541596857.1 Switch=Y r1=1e-4 x1=1e-4 r0=1e-4 x0=1e-4 normamps=9999
New Line.346679916 Phases=1 Bus1=node_541241275.2 Bus2=node_541241276.2 Switch=Y r1=1e-4 x1=1e-4 r0=1e-4 x0=1e-4 normamps=9999
New Line.346445513 Phases=1 Bus1=node_540592948.3 Bus2=node_540592949.3 Switch=Y r1=1e-4 x1=1e-4 r0=1e-4 x0=1e-4 normamps=9999
New Line.346445736 Phases=1 Bus1=node_540615005.3 Bus2=node_540615006.3 Switch=Y r1=1e-4 x1=1e-4 r0=1e-4 x0=1e-4 normamps=9999
New Line.346752518 Phases=1 Bus1=node_541434565.1 Bus2=node_541434564.1 Switch=Y r1=1e-4 x1=1e-4 r0=1e-4 x0=1e-4 normamps=9999
New Line.346568944 Phases=1 Bus1=node_540871904.2 Bus2=node_540871905.2 Switch=Y r1=1e-4 x1=1e-4 r0=1e-4 x0=1e-4 normamps=9999
New Line.346500695 Phases=3 Bus1=node_540704512.1.2.3 Bus2=node_540704513.1.2.3 Switch=Y r1=1e-4 x1=1e-4 r0=1e-4 x0=1e-4 normamps=9999
New Line.346752502 Phases=1 Bus1=node_541434528.1 Bus2=node_541434529.1 Switch=Y r1=1e-4 x1=1e-4 r0=1e-4 x0=1e-4 normamps=9999
New Line.346680261 Phases=3 Bus1=node_541289406.1.2.3 Bus2=node_541289407.1.2.3 Switch=Y r1=1e-4 x1=1e-4 r0=1e-4 x0=1e-4 normamps=9999
New Line.346752464 Phases=1 Bus1=node_541434414.2 Bus2=node_541434415.2 Switch=Y r1=1e-4 x1=1e-4 r0=1e-4 x0=1e-4 normamps=9999
New Line.346500432 Phases=3 Bus1=node_540703817.1.2.3 Bus2=node_540703818.1.2.3 Switch=Y r1=1e-4 x1=1e-4 r0=1e-4 x0=1e-4 normamps=9999
New Line.346829562 Phases=1 Bus1=node_541632506.3 Bus2=node_541632507.3 Switch=Y r1=1e-4 x1=1e-4 r0=1e-4 x0=1e-4 normamps=9999
New Line.346829106 Phases=1 Bus1=node_541596946.1 Bus2=node_541596947.1 Switch=Y r1=1e-4 x1=1e-4 r0=1e-4 x0=1e-4 normamps=9999
New Line.346752705 Phases=1 Bus1=node_541469429.1 Bus2=node_541469430.1 Switch=Y r1=1e-4 x1=1e-4 r0=1e-4 x0=1e-4 normamps=9999
New Line.346445462 Phases=1 Bus1=node_540592795.1 Bus2=node_540592796.1 Switch=Y r1=1e-4 x1=1e-4 r0=1e-4 x0=1e-4 normamps=9999
New Line.346897874 Phases=1 Bus1=node_541731010.2 Bus2=node_541731011.2 Switch=Y r1=1e-4 x1=1e-4 r0=1e-4 x0=1e-4 normamps=9999
New Line.346680027 Phases=1 Bus1=node_541288806.3 Bus2=node_541288807.3 Switch=Y r1=1e-4 x1=1e-4 r0=1e-4 x0=1e-4 normamps=9999
New Line.346607146 Phases=1 Bus1=node_541060778.3 Bus2=node_541060779.3 Switch=Y r1=1e-4 x1=1e-4 r0=1e-4 x0=1e-4 normamps=9999
New Line.346679658 Phases=1 Bus1=node_541240645.1 Bus2=node_541240646.1 Switch=Y r1=1e-4 x1=1e-4 r0=1e-4 x0=1e-4 normamps=9999
New Line.346445768 Phases=1 Bus1=node_540615101.1 Bus2=node_540615102.1 Switch=Y r1=1e-4 x1=1e-4 r0=1e-4 x0=1e-4 normamps=9999
New Line.346752409 Phases=1 Bus1=node_541434249.3 Bus2=node_541434250.3 Switch=Y r1=1e-4 x1=1e-4 r0=1e-4 x0=1e-4 normamps=9999
New Line.346829291 Phases=1 Bus1=node_541597453.3 Bus2=node_541597454.3 Switch=Y r1=1e-4 x1=1e-4 r0=1e-4 x0=1e-4 normamps=9999
New Line.346829327 Phases=1 Bus1=node_541597549.3 Bus2=node_541597550.3 Switch=Y r1=1e-4 x1=1e-4 r0=1e-4 x0=1e-4 normamps=9999
New Line.346897694 Phases=3 Bus1=node_541730542.1.2.3 Bus2=node_541730543.1.2.3 Switch=Y r1=1e-4 x1=1e-4 r0=1e-4 x0=1e-4 normamps=9999
New Line.346568938 Phases=1 Bus1=node_540871886.3 Bus2=node_540871887.3 Switch=Y r1=1e-4 x1=1e-4 r0=1e-4 x0=1e-4 normamps=9999
New Line.346445755 Phases=1 Bus1=node_540615062.1 Bus2=node_540615063.1 Switch=Y r1=1e-4 x1=1e-4 r0=1e-4 x0=1e-4 normamps=9999
New Line.346897852 Phases=1 Bus1=node_541730956.2 Bus2=node_541730957.2 Switch=Y r1=1e-4 x1=1e-4 r0=1e-4 x0=1e-4 normamps=9999
New Line.346752476 Phases=1 Bus1=node_541434450.3 Bus2=node_541434451.3 Switch=Y r1=1e-4 x1=1e-4 r0=1e-4 x0=1e-4 normamps=9999
New Line.346500591 Phases=1 Bus1=node_540704212.1 Bus2=node_540704213.1 Switch=Y r1=1e-4 x1=1e-4 r0=1e-4 x0=1e-4 normamps=9999
New Line.346607121 Phases=3 Bus1=node_541060715.1.2.3 Bus2=node_541060716.1.2.3 Switch=Y r1=1e-4 x1=1e-4 r0=1e-4 x0=1e-4 normamps=9999
New Line.346500689 Phases=1 Bus1=node_540704495.1 Bus2=node_540704494.1 Switch=Y r1=1e-4 x1=1e-4 r0=1e-4 x0=1e-4 normamps=9999
New Line.346898170 Phases=3 Bus1=node_541753278.1.2.3 Bus2=node_541753279.1.2.3 Switch=Y r1=1e-4 x1=1e-4 r0=1e-4 x0=1e-4 normamps=9999
New Line.346500652 Phases=1 Bus1=node_540704395.1 Bus2=node_540704396.1 Switch=Y r1=1e-4 x1=1e-4 r0=1e-4 x0=1e-4 normamps=9999
New Line.346898160 Phases=3 Bus1=node_541753260.1.2.3 Bus2=node_541753261.1.2.3 Switch=Y r1=1e-4 x1=1e-4 r0=1e-4 x0=1e-4 normamps=9999
New Line.346606894 Phases=1 Bus1=node_541060130.2 Bus2=node_541060131.2 Switch=Y r1=1e-4 x1=1e-4 r0=1e-4 x0=1e-4 normamps=9999
New Line.346829063 Phases=1 Bus1=node_541596817.1 Bus2=node_541596818.1 Switch=Y r1=1e-4 x1=1e-4 r0=1e-4 x0=1e-4 normamps=9999
New Line.346569027 Phases=1 Bus1=node_540872153.3 Bus2=node_540872154.3 Switch=Y r1=1e-4 x1=1e-4 r0=1e-4 x0=1e-4 normamps=9999
New Line.346898115 Phases=1 Bus1=node_541753125.2 Bus2=node_541753126.2 Switch=Y r1=1e-4 x1=1e-4 r0=1e-4 x0=1e-4 normamps=9999
New Line.346447984 Phases=3 Bus1=node_540637730.1.2.3 Bus2=node_540637729.1.2.3 Switch=Y r1=1e-4 x1=1e-4 r0=1e-4 x0=1e-4 normamps=9999
New Line.346500597 Phases=1 Bus1=node_540704230.3 Bus2=node_540704231.3 Switch=Y r1=1e-4 x1=1e-4 r0=1e-4 x0=1e-4 normamps=9999
New Line.346752593 Phases=1 Bus1=node_541434753.1 Bus2=node_541469106.1 Switch=Y r1=1e-4 x1=1e-4 r0=1e-4 x0=1e-4 normamps=9999
New Line.346680010 Phases=1 Bus1=node_541288767.2 Bus2=node_541288768.2 Switch=Y r1=1e-4 x1=1e-4 r0=1e-4 x0=1e-4 normamps=9999
New Line.346897953 Phases=1 Bus1=node_541752705.2 Bus2=node_541752706.2 Switch=Y r1=1e-4 x1=1e-4 r0=1e-4 x0=1e-4 normamps=9999
New Line.346829265 Phases=3 Bus1=node_541597399.1.2.3 Bus2=node_541597400.1.2.3 Switch=Y r1=1e-4 x1=1e-4 r0=1e-4 x0=1e-4 normamps=9999
New Line.346568918 Phases=1 Bus1=node_540871826.2 Bus2=node_540871827.2 Switch=Y r1=1e-4 x1=1e-4 r0=1e-4 x0=1e-4 normamps=9999
New Line.346897688 Phases=1 Bus1=node_541730524.3 Bus2=node_541730525.3 Switch=Y r1=1e-4 x1=1e-4 r0=1e-4 x0=1e-4 normamps=9999
New Line.346829088 Phases=1 Bus1=node_541596892.3 Bus2=node_541596893.3 Switch=Y r1=1e-4 x1=1e-4 r0=1e-4 x0=1e-4 normamps=9999
New Line.346866011 Phases=3 Bus1=node_541667461.1.2.3 Bus2=node_541667462.1.2.3 Switch=Y r1=1e-4 x1=1e-4 r0=1e-4 x0=1e-4 normamps=9999
New Line.346897918 Phases=1 Bus1=node_541752612.1 Bus2=node_541752613.1 Switch=Y r1=1e-4 x1=1e-4 r0=1e-4 x0=1e-4 normamps=9999
New Line.346502581 Phases=3 Bus1=node_540773624.1.2.3 Bus2=node_540773623.1.2.3 Switch=Y r1=1e-4 x1=1e-4 r0=1e-4 x0=1e-4 normamps=9999
New Line.346542874 Phases=3 Bus1=node_540871056.1.2.3 Bus2=node_540871057.1.2.3 Switch=Y r1=1e-4 x1=1e-4 r0=1e-4 x0=1e-4 normamps=9999
New Line.346865745 Phases=3 Bus1=node_541666981.1.2.3 Bus2=node_541666982.1.2.3 Switch=Y r1=1e-4 x1=1e-4 r0=1e-4 x0=1e-4 normamps=9999
New Line.346829069 Phases=1 Bus1=node_541596835.3 Bus2=node_541596836.3 Switch=Y r1=1e-4 x1=1e-4 r0=1e-4 x0=1e-4 normamps=9999
New Line.346679974 Phases=3 Bus1=node_541241438.1.2.3 Bus2=node_541241437.1.2.3 Switch=Y r1=1e-4 x1=1e-4 r0=1e-4 x0=1e-4 normamps=9999
New Line.346500401 Phases=1 Bus1=node_540703724.3 Bus2=node_540703725.3 Switch=Y r1=1e-4 x1=1e-4 r0=1e-4 x0=1e-4 normamps=9999
New Line.346680317 Phases=1 Bus1=node_541289538.2 Bus2=node_541289539.2 Switch=Y r1=1e-4 x1=1e-4 r0=1e-4 x0=1e-4 normamps=9999
New Line.346829094 Phases=1 Bus1=node_541596910.2 Bus2=node_541596911.2 Switch=Y r1=1e-4 x1=1e-4 r0=1e-4 x0=1e-4 normamps=9999
New Line.346829100 Phases=1 Bus1=node_541596928.2 Bus2=node_541596929.2 Switch=Y r1=1e-4 x1=1e-4 r0=1e-4 x0=1e-4 normamps=9999
New Line.346897782 Phases=1 Bus1=node_541730782.3 Bus2=node_541730783.3 Switch=Y r1=1e-4 x1=1e-4 r0=1e-4 x0=1e-4 normamps=9999
New Line.346829240 Phases=1 Bus1=node_541597324.1 Bus2=node_541597325.1 Switch=Y r1=1e-4 x1=1e-4 r0=1e-4 x0=1e-4 normamps=9999
New Line.346829478 Phases=3 Bus1=node_541632294.1.2.3 Bus2=node_541632295.1.2.3 Switch=Y r1=1e-4 x1=1e-4 r0=1e-4 x0=1e-4 normamps=9999
New Line.346752452 Phases=1 Bus1=node_541434378.3 Bus2=node_541434379.3 Switch=Y r1=1e-4 x1=1e-4 r0=1e-4 x0=1e-4 normamps=9999
New Line.346752835 Phases=1 Bus1=node_541469747.1 Bus2=node_541469748.1 Switch=Y r1=1e-4 x1=1e-4 r0=1e-4 x0=1e-4 normamps=9999
New Line.346897983 Phases=1 Bus1=node_541752783.1 Bus2=node_541752784.1 Switch=Y r1=1e-4 x1=1e-4 r0=1e-4 x0=1e-4 normamps=9999
New Line.346680217 Phases=3 Bus1=node_541289310.1.2.3 Bus2=node_541289311.1.2.3 Switch=Y r1=1e-4 x1=1e-4 r0=1e-4 x0=1e-4 normamps=9999
New Line.346542745 Phases=1 Bus1=node_540870717.1 Bus2=node_540870718.1 Switch=Y r1=1e-4 x1=1e-4 r0=1e-4 x0=1e-4 normamps=9999
New Line.346897739 Phases=1 Bus1=node_541730665.3 Bus2=node_541730666.3 Switch=Y r1=1e-4 x1=1e-4 r0=1e-4 x0=1e-4 normamps=9999
New Line.346679947 Phases=1 Bus1=node_541241356.3 Bus2=node_541241357.3 Switch=Y r1=1e-4 x1=1e-4 r0=1e-4 x0=1e-4 normamps=9999
New Line.346680033 Phases=1 Bus1=node_541288824.3 Bus2=node_541288825.3 Switch=Y r1=1e-4 x1=1e-4 r0=1e-4 x0=1e-4 normamps=9999
New Line.346680301 Phases=1 Bus1=node_541289502.1 Bus2=node_541289503.1 Switch=Y r1=1e-4 x1=1e-4 r0=1e-4 x0=1e-4 normamps=9999
New Line.346716284 Phases=3 Bus1=node_541332076.1.2.3 Bus2=node_541332077.1.2.3 Switch=Y r1=1e-4 x1=1e-4 r0=1e-4 x0=1e-4 normamps=9999
New Line.346542860 Phases=1 Bus1=node_540871014.3 Bus2=node_540871015.3 Switch=Y r1=1e-4 x1=1e-4 r0=1e-4 x0=1e-4 normamps=9999
New Line.346897654 Phases=1 Bus1=node_541730422.3 Bus2=node_541730423.3 Switch=Y r1=1e-4 x1=1e-4 r0=1e-4 x0=1e-4 normamps=9999
New Line.346607153 Phases=1 Bus1=node_541060799.1 Bus2=node_541060800.1 Switch=Y r1=1e-4 x1=1e-4 r0=1e-4 x0=1e-4 normamps=9999
New Line.346568900 Phases=1 Bus1=node_540871772.1 Bus2=node_540871773.1 Switch=Y r1=1e-4 x1=1e-4 r0=1e-4 x0=1e-4 normamps=9999
New Line.346680330 Phases=1 Bus1=node_541289577.1 Bus2=node_541289578.1 Switch=Y r1=1e-4 x1=1e-4 r0=1e-4 x0=1e-4 normamps=9999
New Line.346500841 Phases=1 Bus1=node_540734912.3 Bus2=node_540734913.3 Switch=Y r1=1e-4 x1=1e-4 r0=1e-4 x0=1e-4 normamps=9999
New Line.346829350 Phases=1 Bus1=node_541597606.1 Bus2=node_541597607.1 Switch=Y r1=1e-4 x1=1e-4 r0=1e-4 x0=1e-4 normamps=9999
New Line.346607326 Phases=1 Bus1=node_541095610.1 Bus2=node_541095611.1 Switch=Y r1=1e-4 x1=1e-4 r0=1e-4 x0=1e-4 normamps=9999
New Line.346500621 Phases=1 Bus1=node_540704302.2 Bus2=node_540704303.2 Switch=Y r1=1e-4 x1=1e-4 r0=1e-4 x0=1e-4 normamps=9999
New Line.346752815 Phases=1 Bus1=node_541469687.1 Bus2=node_541469688.1 Switch=Y r1=1e-4 x1=1e-4 r0=1e-4 x0=1e-4 normamps=9999
New Line.346606888 Phases=3 Bus1=node_1889438378.1.2.3 Bus2=node_1889438379.1.2.3 Switch=Y r1=1e-4 x1=1e-4 r0=1e-4 x0=1e-4 normamps=9999
New Line.346829660 Phases=3 Bus1=node_433613456.1.2.3 Bus2=node_2731258674.1.2.3 Switch=Y r1=1e-4 x1=1e-4 r0=1e-4 x0=1e-4 normamps=9999
New Line.346752791 Phases=1 Bus1=node_541469627.1 Bus2=node_541469628.1 Switch=Y r1=1e-4 x1=1e-4 r0=1e-4 x0=1e-4 normamps=9999
New Line.346446048 Phases=1 Bus1=node_540615823.1 Bus2=node_540615824.1 Switch=Y r1=1e-4 x1=1e-4 r0=1e-4 x0=1e-4 normamps=9999
New Line.346500442 Phases=1 Bus1=node_2180278739.2 Bus2=node_2180278740.2 Switch=Y r1=1e-4 x1=1e-4 r0=1e-4 x0=1e-4 normamps=9999
New Line.346500676 Phases=1 Bus1=node_540704455.1 Bus2=node_540704456.1 Switch=Y r1=1e-4 x1=1e-4 r0=1e-4 x0=1e-4 normamps=9999
New Line.346897682 Phases=1 Bus1=node_541730506.1 Bus2=node_541730507.1 Switch=Y r1=1e-4 x1=1e-4 r0=1e-4 x0=1e-4 normamps=9999
New Line.346211528 Phases=1 Bus1=node_540541773.3 Bus2=node_540541774.3 Switch=Y r1=1e-4 x1=1e-4 r0=1e-4 x0=1e-4 normamps=9999
New Line.346570248 Phases=1 Bus1=node_540922467.3 Bus2=node_540922468.3 Switch=Y r1=1e-4 x1=1e-4 r0=1e-4 x0=1e-4 normamps=9999
New Line.346638663 Phases=3 Bus1=node_541098815.1.2.3 Bus2=node_541098816.1.2.3 Switch=Y r1=1e-4 x1=1e-4 r0=1e-4 x0=1e-4 normamps=9999
New Line.346571709 Phases=3 Bus1=node_540963981.1.2.3 Bus2=node_540963982.1.2.3 Switch=Y r1=1e-4 x1=1e-4 r0=1e-4 x0=1e-4 normamps=9999
New Line.346447362 Phases=1 Bus1=node_540636351.2 Bus2=node_540636352.2 Switch=Y r1=1e-4 x1=1e-4 r0=1e-4 x0=1e-4 normamps=9999
New Line.346790860 Phases=3 Bus1=node_541511617.1.2.3 Bus2=node_541511618.1.2.3 Switch=Y r1=1e-4 x1=1e-4 r0=1e-4 x0=1e-4 normamps=9999
New Line.346211433 Phases=1 Bus1=node_540296754.3 Bus2=node_540296755.3 Switch=Y r1=1e-4 x1=1e-4 r0=1e-4 x0=1e-4 normamps=9999
New Line.346866863 Phases=3 Bus1=node_541668929.1.2.3 Bus2=node_541668930.1.2.3 Switch=Y r1=1e-4 x1=1e-4 r0=1e-4 x0=1e-4 normamps=9999
New Line.346572738 Phases=3 Bus1=node_540965730.1.2.3 Bus2=node_540965731.1.2.3 Switch=Y r1=1e-4 x1=1e-4 r0=1e-4 x0=1e-4 normamps=9999
New Line.346570371 Phases=3 Bus1=node_540922836.1.2.3 Bus2=node_540922837.1.2.3 Switch=Y r1=1e-4 x1=1e-4 r0=1e-4 x0=1e-4 normamps=9999
New Line.346474799 Phases=3 Bus1=node_2524348362.1.2.3 Bus2=node_2524348363.1.2.3 Switch=Y r1=1e-4 x1=1e-4 r0=1e-4 x0=1e-4 normamps=9999
New Line.346414632 Phases=3 Bus1=node_540544205.1.2.3 Bus2=node_540544206.1.2.3 Switch=Y r1=1e-4 x1=1e-4 r0=1e-4 x0=1e-4 normamps=9999
New Line.346638335 Phases=3 Bus1=node_541097915.1.2.3 Bus2=node_541097916.1.2.3 Switch=Y r1=1e-4 x1=1e-4 r0=1e-4 x0=1e-4 normamps=9999
New Line.346446561 Phases=1 Bus1=node_540617076.3 Bus2=node_540617077.3 Switch=Y r1=1e-4 x1=1e-4 r0=1e-4 x0=1e-4 normamps=9999
New Line.346867240 Phases=3 Bus1=node_541669589.1.2.3 Bus2=node_541669590.1.2.3 Switch=Y r1=1e-4 x1=1e-4 r0=1e-4 x0=1e-4 normamps=9999
...
